Version 4
SHEET 1 1676 776
WIRE 192 -432 96 -432
WIRE 256 -432 192 -432
WIRE 432 -432 256 -432
WIRE 496 -432 432 -432
WIRE 688 -432 496 -432
WIRE 832 -432 688 -432
WIRE 896 -432 832 -432
WIRE 1088 -432 896 -432
WIRE 1152 -432 1088 -432
WIRE 256 -352 256 -432
WIRE 432 -352 432 -432
WIRE 896 -352 896 -432
WIRE 1088 -352 1088 -432
WIRE 192 -304 192 -432
WIRE 256 -304 192 -304
WIRE 352 -304 304 -304
WIRE 384 -304 352 -304
WIRE 496 -304 496 -432
WIRE 496 -304 432 -304
WIRE 832 -304 832 -432
WIRE 896 -304 832 -304
WIRE 992 -304 944 -304
WIRE 1040 -304 992 -304
WIRE 1152 -304 1152 -432
WIRE 1152 -304 1088 -304
WIRE 256 -224 256 -256
WIRE 352 -224 352 -304
WIRE 352 -224 256 -224
WIRE 432 -224 432 -256
WIRE 688 -224 432 -224
WIRE 896 -224 896 -256
WIRE 992 -224 992 -304
WIRE 992 -224 896 -224
WIRE 432 -160 432 -224
WIRE 896 -160 896 -224
WIRE 432 -112 352 -112
WIRE 688 -112 688 -224
WIRE 688 -112 480 -112
WIRE 848 -112 688 -112
WIRE 992 -112 896 -112
WIRE 352 -64 352 -112
WIRE 432 -64 352 -64
WIRE 992 -64 992 -112
WIRE 992 -64 896 -64
WIRE 96 -48 96 -432
WIRE 432 0 432 -64
WIRE 432 0 352 0
WIRE 896 0 896 -64
WIRE 992 0 896 0
WIRE 1088 0 1088 -256
WIRE 1184 0 1088 0
WIRE 432 64 432 0
WIRE 432 64 352 64
WIRE 896 64 896 0
WIRE 992 64 896 64
WIRE 352 112 352 64
WIRE 432 112 352 112
WIRE 688 112 480 112
WIRE 848 112 688 112
WIRE 992 112 992 64
WIRE 992 112 896 112
WIRE 432 192 432 160
WIRE 688 192 688 112
WIRE 688 192 432 192
WIRE 96 224 96 32
WIRE 192 224 96 224
WIRE 352 224 192 224
WIRE 896 240 896 160
WIRE 992 240 896 240
WIRE 96 288 96 224
WIRE 256 288 256 -224
WIRE 432 288 432 192
WIRE 896 288 896 240
WIRE 1088 288 1088 0
WIRE 96 336 32 336
WIRE 192 336 192 224
WIRE 192 336 144 336
WIRE 256 336 208 336
WIRE 352 336 352 224
WIRE 352 336 304 336
WIRE 384 336 352 336
WIRE 512 336 432 336
WIRE 896 336 816 336
WIRE 992 336 992 240
WIRE 992 336 944 336
WIRE 1040 336 992 336
WIRE 1168 336 1088 336
WIRE 32 544 32 336
WIRE 96 544 96 384
WIRE 96 544 32 544
WIRE 208 544 208 336
WIRE 208 544 96 544
WIRE 256 544 256 384
WIRE 256 544 208 544
WIRE 432 544 432 384
WIRE 432 544 256 544
WIRE 512 544 512 336
WIRE 512 544 432 544
WIRE 688 544 512 544
WIRE 816 544 816 336
WIRE 816 544 688 544
WIRE 896 544 896 384
WIRE 896 544 816 544
WIRE 1088 544 1088 384
WIRE 1088 544 896 544
WIRE 1168 544 1168 336
WIRE 1168 544 1088 544
FLAG 992 0 X
FLAG 352 0 Y
FLAG 1184 0 Z
FLAG 688 -432 VDD
FLAG 688 544 VSS
SYMBOL 035_ltspice_lib\\pmos_035 480 64 M0
SYMATTR InstName M6
SYMATTR Value2 W=37.8u
SYMBOL 035_ltspice_lib\\pmos_035 848 64 R0
SYMATTR InstName M7
SYMATTR Value2 W=37.8u
SYMBOL 035_ltspice_lib\\nmos_035 480 -160 M0
SYMATTR InstName M8
SYMATTR Value2 W=4u
SYMBOL 035_ltspice_lib\\nmos_035 848 -160 R0
SYMATTR InstName M9
SYMATTR Value2 W=4u
SYMBOL 035_ltspice_lib\\pmos_035 304 -352 M0
SYMATTR InstName M10
SYMATTR Value2 W=27u
SYMBOL 035_ltspice_lib\\pmos_035 384 -352 R0
SYMATTR InstName M11
SYMATTR Value2 W=27u
SYMBOL 035_ltspice_lib\\pmos_035 944 -352 M0
SYMATTR InstName M12
SYMATTR Value2 W=27u
SYMBOL 035_ltspice_lib\\pmos_035 1040 -352 R0
SYMATTR InstName M13
SYMATTR Value2 W=27u
SYMBOL current 96 -48 R0
SYMATTR InstName I1
SYMATTR Value 5µ
SYMBOL 035_ltspice_lib\\nmos_035 144 288 M0
SYMATTR InstName M1
SYMATTR Value2 W=7u
SYMBOL 035_ltspice_lib\\nmos_035 304 288 M0
SYMATTR InstName M2
SYMATTR Value2 W=7u
SYMBOL 035_ltspice_lib\\nmos_035 384 288 R0
SYMATTR InstName M3
SYMATTR Value2 W=7u
SYMBOL 035_ltspice_lib\\nmos_035 944 288 M0
SYMATTR InstName M4
SYMATTR Value2 W=7u
SYMBOL 035_ltspice_lib\\nmos_035 1040 288 R0
SYMATTR InstName M5
SYMATTR Value2 W=7u
TEXT 96 696 Left 2 !.include "C:\\Users\\Admin\\AppData\\Local\\LTspice\\lib\\sym\\035_ltspice_lib\\5827_035.lib"
