Version 4
SHEET 1 1800 688
WIRE 144 -48 -48 -48
WIRE 256 -48 144 -48
WIRE 432 -48 336 -48
WIRE 608 -48 432 -48
WIRE -48 128 -48 -48
WIRE 144 128 144 -48
WIRE 432 128 432 -48
WIRE 1344 144 1216 144
WIRE 1344 160 1344 144
WIRE 1040 176 944 176
WIRE 608 224 608 -48
WIRE 1216 224 1216 144
WIRE 1216 224 896 224
WIRE 896 240 896 224
WIRE 864 256 864 176
WIRE 880 256 864 256
WIRE 1040 272 1040 176
WIRE 1040 272 944 272
WIRE 1344 272 1344 240
WIRE 1344 272 1248 272
WIRE 880 288 864 288
WIRE 1248 288 1248 272
WIRE 1344 304 1344 272
WIRE 896 320 896 304
WIRE 1216 320 896 320
WIRE 864 352 864 288
WIRE 864 352 848 352
WIRE 1040 352 1040 272
WIRE 1040 352 944 352
WIRE 848 368 848 352
WIRE 1216 400 1216 320
WIRE 1344 400 1344 384
WIRE 1344 400 1216 400
WIRE -48 464 -48 208
WIRE 144 464 144 192
WIRE 144 464 -48 464
WIRE 432 464 432 192
WIRE 432 464 144 464
WIRE 608 464 608 336
WIRE 608 464 432 464
WIRE 848 464 848 448
WIRE 432 496 432 464
FLAG 432 496 0
FLAG 1248 288 0
SYMBOL cap 128 128 R0
SYMATTR InstName C2
SYMATTR Value 44nF
SYMBOL ind -64 112 R0
SYMATTR InstName L1
SYMATTR Value 7mh
SYMBOL OpAmps\\LT1351 912 272 M180
SYMATTR InstName U1
SYMBOL res 832 352 R0
SYMATTR InstName R2
SYMATTR Value 2.2k
SYMBOL res 960 336 R90
WINDOW 0 0 56 VBottom 2
WINDOW 3 32 56 VTop 2
SYMATTR InstName R3
SYMATTR Value 220
SYMBOL res 960 160 R90
WINDOW 0 0 56 VBottom 2
WINDOW 3 32 56 VTop 2
SYMATTR InstName R4
SYMATTR Value 220
SYMBOL voltage 1344 256 R180
WINDOW 0 24 96 Left 2
WINDOW 3 24 16 Left 2
SYMATTR InstName V1
SYMATTR Value 9
SYMBOL voltage 1344 400 R180
WINDOW 0 24 96 Left 2
WINDOW 3 24 16 Left 2
SYMATTR InstName V2
SYMATTR Value 9
SYMBOL Chua_diode 560 288 R0
SYMATTR InstName X1
SYMBOL res 352 -64 R90
WINDOW 0 0 56 VBottom 2
WINDOW 3 32 56 VTop 2
SYMATTR InstName R1
SYMATTR Value 1640
SYMBOL cap 416 128 R0
SYMATTR InstName C1
SYMATTR Value 4nF
TEXT 328 568 Left 2 !.tran 0 100m 0.1m
