Version 4
SHEET 1 1024 680
WIRE 960 80 912 80
WIRE -64 96 -176 96
WIRE 176 96 176 -128
WIRE 176 96 16 96
WIRE 320 96 176 96
WIRE 528 96 400 96
WIRE 912 96 912 80
WIRE 352 160 -16 160
WIRE 464 160 352 160
WIRE -16 176 -16 160
WIRE 352 176 352 160
WIRE 16 192 16 96
WIRE 16 192 0 192
WIRE 320 192 320 96
WIRE 336 192 320 192
WIRE -176 208 -176 96
WIRE -64 208 -176 208
WIRE 528 208 528 96
WIRE 528 208 400 208
WIRE 912 208 912 176
WIRE 912 208 816 208
WIRE 16 224 0 224
WIRE 336 224 320 224
WIRE 816 224 816 208
WIRE 912 240 912 208
WIRE -16 256 -16 240
WIRE 352 256 352 240
WIRE 352 256 -16 256
WIRE 464 256 352 256
WIRE -176 320 -176 208
WIRE -64 320 -176 320
WIRE 16 320 16 224
WIRE 64 320 16 320
WIRE 320 320 320 224
WIRE 320 320 272 320
WIRE 528 320 528 208
WIRE 528 320 400 320
WIRE 912 336 912 320
WIRE 960 336 912 336
WIRE 64 368 64 320
WIRE 272 368 272 320
WIRE 64 496 64 448
WIRE 176 496 64 496
WIRE 272 496 272 448
WIRE 272 496 176 496
WIRE 176 576 176 496
FLAG 816 224 0
FLAG 176 -128 VDDC
FLAG 176 576 VSSC
FLAG 464 256 VCC
FLAG 464 160 VSS
FLAG 960 336 VCC
FLAG 960 80 VSS
SYMBOL OpAmps\\LT1351 -32 208 R180
SYMATTR InstName U1
SYMBOL OpAmps\\LT1351 368 208 M180
SYMATTR InstName U2
SYMBOL res 48 352 R0
SYMATTR InstName R1
SYMATTR Value 3.3k
SYMBOL res 256 352 R0
SYMATTR InstName R2
SYMATTR Value 2.2k
SYMBOL res 416 304 R90
WINDOW 0 0 56 VBottom 2
WINDOW 3 32 56 VTop 2
SYMATTR InstName R3
SYMATTR Value 220
SYMBOL res 32 304 R90
WINDOW 0 0 56 VBottom 2
WINDOW 3 32 56 VTop 2
SYMATTR InstName R4
SYMATTR Value 22k
SYMBOL res 32 80 R90
WINDOW 0 0 56 VBottom 2
WINDOW 3 32 56 VTop 2
SYMATTR InstName R5
SYMATTR Value 22k
SYMBOL res 416 80 R90
WINDOW 0 0 56 VBottom 2
WINDOW 3 32 56 VTop 2
SYMATTR InstName R6
SYMATTR Value 220
SYMBOL voltage 912 192 R180
WINDOW 0 24 96 Left 2
WINDOW 3 24 16 Left 2
SYMATTR InstName V1
SYMATTR Value 12
SYMBOL voltage 912 336 R180
WINDOW 0 24 96 Left 2
WINDOW 3 24 16 Left 2
SYMATTR InstName V2
SYMATTR Value 12
