Version 4
SHEET 1 880 680
WIRE 160 -32 -240 -32
WIRE 160 64 160 -32
WIRE -240 80 -240 -32
WIRE -240 320 -240 160
WIRE 16 320 -240 320
WIRE 144 320 144 192
WIRE 144 320 16 320
WIRE 16 352 16 320
FLAG 16 352 0
SYMBOL voltage -240 64 R0
SYMATTR InstName V1
SYMATTR Value SINE(2.5 1 50kHz)
SYMBOL Memristor_ver2 112 176 R0
SYMATTR InstName X1
TEXT -136 416 Left 2 !.tran 0 200u 0.1u
TEXT -136 480 Left 2 ;.op
