Version 4
SHEET 1 1880 680
WIRE 448 -768 224 -768
WIRE 528 -768 448 -768
WIRE 736 -768 528 -768
WIRE 864 -768 736 -768
WIRE 944 -768 864 -768
WIRE 1232 -768 944 -768
WIRE 448 -720 448 -768
WIRE 528 -720 448 -720
WIRE 624 -720 576 -720
WIRE 816 -720 624 -720
WIRE 944 -720 944 -768
WIRE 944 -720 864 -720
WIRE 1232 -656 1232 -768
WIRE 1296 -656 1232 -656
WIRE 528 -640 528 -672
WIRE 624 -640 624 -720
WIRE 624 -640 528 -640
WIRE 1232 -640 1232 -656
WIRE 224 -608 224 -768
WIRE 864 -592 864 -672
WIRE 1056 -592 864 -592
WIRE 1184 -592 1056 -592
WIRE 1296 -592 1296 -656
WIRE 1296 -592 1232 -592
WIRE 1056 -496 1056 -592
WIRE 1232 -496 1232 -544
WIRE 1232 -496 1120 -496
WIRE 528 -464 528 -640
WIRE 864 -464 864 -592
WIRE 480 -416 400 -416
WIRE 704 -416 528 -416
WIRE 864 -416 704 -416
WIRE 992 -416 912 -416
WIRE 1232 -416 1232 -496
WIRE 1312 -416 1232 -416
WIRE 704 -384 704 -416
WIRE 528 -288 528 -368
WIRE 704 -288 528 -288
WIRE 864 -288 864 -368
WIRE 864 -288 704 -288
WIRE 224 -208 224 -528
WIRE 224 -208 112 -208
WIRE 912 -208 224 -208
WIRE 224 -176 224 -208
WIRE 704 -176 704 -288
WIRE 1232 -176 1232 -416
WIRE 112 -128 112 -208
WIRE 176 -128 112 -128
WIRE 304 -128 224 -128
WIRE 704 -128 640 -128
WIRE 912 -128 912 -208
WIRE 912 -128 752 -128
WIRE 1184 -128 912 -128
WIRE 1296 -128 1232 -128
WIRE 640 -80 640 -128
WIRE 704 -80 640 -80
WIRE 960 -80 704 -80
WIRE 1232 -80 960 -80
WIRE 1296 -80 1296 -128
WIRE 1296 -80 1232 -80
WIRE 224 -32 224 -80
WIRE 304 -32 304 -128
WIRE 304 -32 224 -32
WIRE 960 -32 960 -80
WIRE 960 -32 304 -32
FLAG 704 -384 0
FLAG 992 -416 VP
FLAG 400 -416 VN
FLAG 960 -32 VSS
FLAG 736 -768 VDD
FLAG 1312 -416 VOUT
DATAFLAG 1232 -192 ""
DATAFLAG 1232 -704 ""
DATAFLAG 1136 -592 ""
DATAFLAG 1232 -528 ""
DATAFLAG 704 -224 ""
DATAFLAG 784 -128 ""
DATAFLAG 1136 -128 ""
DATAFLAG 144 -128 ""
DATAFLAG 224 -272 ""
DATAFLAG 224 -64 ""
DATAFLAG 864 -512 ""
DATAFLAG 784 -720 ""
DATAFLAG 896 -768 ""
SYMBOL 035_ltspice_lib\\nmos_035 480 -464 R0
WINDOW 0 66 25 Left 2
WINDOW 123 66 65 Left 1
SYMATTR InstName M1
SYMATTR Value2 W=2u L=2u m=10
SYMATTR SpiceLine ""
SYMBOL 035_ltspice_lib\\pmos_035 816 -768 R0
WINDOW 0 65 25 Left 2
WINDOW 123 66 64 Left 2
SYMATTR InstName M3
SYMATTR Value2 W=4u L=2u m=10
SYMATTR SpiceLine ""
SYMBOL 035_ltspice_lib\\pmos_035 1184 -640 R0
WINDOW 0 65 25 Left 2
WINDOW 123 66 64 Left 2
SYMATTR InstName M6
SYMATTR Value2 W=4u L=2u m=40
SYMATTR SpiceLine ""
SYMBOL 035_ltspice_lib\\nmos_035 1184 -176 R0
WINDOW 123 66 64 Left 2
WINDOW 0 66 25 Left 2
SYMATTR Value2 W=2u L=2u m=40
SYMATTR InstName M7
SYMATTR SpiceLine ""
SYMBOL 035_ltspice_lib\\pmos_035 576 -768 M0
WINDOW 0 65 25 Left 2
WINDOW 123 66 64 Left 2
SYMATTR InstName M4
SYMATTR Value2 W=4u L=2u m=10
SYMATTR SpiceLine ""
SYMBOL 035_ltspice_lib\\nmos_035 752 -176 M0
WINDOW 0 66 25 Left 2
WINDOW 123 66 65 Left 2
SYMATTR InstName M5
SYMATTR Value2 W=2u L=2u m=20
SYMATTR SpiceLine ""
SYMBOL 035_ltspice_lib\\nmos_035 912 -464 M0
WINDOW 0 66 25 Left 2
WINDOW 123 66 65 Left 1
SYMATTR InstName M2
SYMATTR Value2 W=2u L=2u m=10
SYMATTR SpiceLine ""
SYMBOL 035_ltspice_lib\\nmos_035 176 -176 R0
WINDOW 0 66 25 Left 2
WINDOW 123 66 65 Left 2
SYMATTR InstName M8
SYMATTR Value2 W=2u L = 2u
SYMATTR SpiceLine ""
SYMBOL current 224 -608 R0
SYMATTR InstName I1
SYMATTR Value 1µ
SYMBOL cap 1120 -512 R90
WINDOW 0 0 32 VBottom 2
WINDOW 3 32 32 VTop 2
SYMATTR InstName Cc
SYMATTR Value 2.21pF
TEXT 72 208 Left 2 !.include "C:\\Users\\Admin\\AppData\\Local\\LTspice\\lib\\sym\\035_ltspice_lib\\5827_035.lib"
TEXT 72 328 Left 2 !.op
TEXT -464 -312 Left 2 ;.tran 40u
TEXT -304 -472 Left 2 ;.ac dec 200 1 1G
TEXT -432 -128 Left 2 ;.noise V(VOUT) VIN1 dec 1000 1 1G
