Version 4
SHEET 1 2368 680
WIRE 1152 -1232 496 -1232
WIRE 1248 -1232 1232 -1232
WIRE 1296 -1232 1248 -1232
WIRE 2288 -1232 1408 -1232
WIRE 1344 -1168 1344 -1296
WIRE 1296 -1120 1296 -1232
WIRE 1408 -1120 1408 -1232
WIRE 496 -992 496 -1232
WIRE 496 -992 416 -992
WIRE 1424 -992 496 -992
WIRE 1584 -992 1536 -992
WIRE 1600 -992 1584 -992
WIRE 2288 -992 2288 -1232
WIRE 2288 -992 1680 -992
WIRE 1488 -928 1488 -1056
WIRE 1424 -880 1424 -992
WIRE 1536 -880 1536 -992
WIRE 1344 -688 1344 -1072
WIRE 1408 -688 1344 -688
WIRE 1488 -688 1488 -832
WIRE 1488 -688 1408 -688
WIRE 1408 -656 1408 -688
WIRE 720 -480 704 -480
WIRE 816 -480 800 -480
WIRE 864 -480 816 -480
WIRE 1312 -480 976 -480
WIRE 1616 -480 1600 -480
WIRE 1632 -480 1616 -480
WIRE 2080 -480 1744 -480
WIRE 912 -416 912 -544
WIRE 1680 -416 1680 -544
WIRE -432 -368 -432 -496
WIRE -96 -368 -96 -496
WIRE 64 -368 64 -496
WIRE 224 -368 224 -496
WIRE 864 -368 864 -480
WIRE 976 -368 976 -480
WIRE 1632 -368 1632 -480
WIRE 1744 -368 1744 -480
WIRE 576 -288 496 -288
WIRE 1312 -288 1312 -480
WIRE 1408 -288 1312 -288
WIRE 2080 -288 2080 -480
WIRE 2176 -288 2080 -288
WIRE -432 -240 -432 -288
WIRE -96 -240 -96 -288
WIRE 64 -240 64 -288
WIRE 224 -240 224 -288
WIRE 416 -240 416 -992
WIRE 496 -240 496 -288
WIRE 496 -240 416 -240
WIRE 704 -240 704 -480
WIRE 704 -240 496 -240
WIRE 992 -240 704 -240
WIRE 1168 -240 1104 -240
WIRE 1184 -240 1168 -240
WIRE 1264 -240 1248 -240
WIRE 1312 -240 1312 -288
WIRE 1312 -240 1264 -240
WIRE 1520 -240 1520 -480
WIRE 1520 -240 1312 -240
WIRE 1760 -240 1520 -240
WIRE 1936 -240 1872 -240
WIRE 1952 -240 1936 -240
WIRE 2032 -240 2016 -240
WIRE 2080 -240 2080 -288
WIRE 2080 -240 2032 -240
WIRE 2288 -240 2288 -992
WIRE 2288 -240 2080 -240
WIRE 1056 -176 1056 -304
WIRE 1824 -176 1824 -304
WIRE 704 -160 704 -240
WIRE 1520 -160 1520 -240
WIRE 2288 -160 2288 -240
WIRE 496 -144 496 -240
WIRE 1312 -144 1312 -240
WIRE 2080 -144 2080 -240
WIRE 992 -128 992 -240
WIRE 1104 -128 1104 -240
WIRE 1760 -128 1760 -240
WIRE 1872 -128 1872 -240
WIRE 496 64 496 -80
WIRE 704 64 704 -80
WIRE 704 64 496 64
WIRE 912 64 912 -320
WIRE 912 64 704 64
WIRE 1056 64 1056 -80
WIRE 1056 64 912 64
WIRE 1312 64 1312 -80
WIRE 1312 64 1056 64
WIRE 1520 64 1520 -80
WIRE 1520 64 1312 64
WIRE 1680 64 1680 -320
WIRE 1680 64 1520 64
WIRE 1824 64 1824 -80
WIRE 1824 64 1680 64
WIRE 2080 64 2080 -80
WIRE 2080 64 1824 64
WIRE 2288 64 2288 -80
WIRE 2288 64 2080 64
WIRE 1520 112 1520 64
FLAG -432 -240 0
FLAG -432 -496 VTANH
FLAG 1520 112 0
FLAG 1056 -304 VTANH
FLAG 1824 -304 VTANH
FLAG 912 -544 VTANH
FLAG 1680 -544 VTANH
FLAG 1488 -1056 VTANH
FLAG 1344 -1296 VTANH
FLAG -96 -240 0
FLAG -96 -496 VIN1
FLAG 1408 -656 0
FLAG 64 -240 0
FLAG 64 -496 VIN2
FLAG 224 -240 0
FLAG 224 -496 VIN3
FLAG 576 -288 VIN1
FLAG 1408 -288 VIN2
FLAG 2176 -288 VIN3
SYMBOL voltage -432 -384 R0
SYMATTR InstName V2
SYMATTR Value 12
SYMBOL cap 480 -144 R0
SYMATTR InstName C1
SYMATTR Value 47n
SYMBOL res 688 -176 R0
SYMATTR InstName R1
SYMATTR Value 1.8k
SYMBOL tanh_model 1024 -112 R0
SYMATTR InstName X1
SYMBOL cap 1296 -144 R0
SYMATTR InstName C2
SYMATTR Value 47n
SYMBOL res 1504 -176 R0
SYMATTR InstName R2
SYMATTR Value 1.8k
SYMBOL tanh_model 1792 -112 R0
SYMATTR InstName X2
SYMBOL cap 2064 -144 R0
SYMATTR InstName C3
SYMATTR Value 47n
SYMBOL res 2272 -176 R0
SYMATTR InstName R4
SYMATTR Value 1.8k
SYMBOL tanh_model 944 -352 M0
SYMATTR InstName X3
SYMBOL tanh_model 1712 -352 M0
SYMATTR InstName X4
SYMBOL tanh_model 1456 -864 R0
SYMATTR InstName X5
SYMBOL tanh_model 1376 -1104 M0
SYMATTR InstName X6
SYMBOL voltage -96 -384 R0
SYMATTR InstName V1
SYMATTR Value 1
SYMBOL memristor 1200 -1232 R90
SYMATTR InstName U1
SYMBOL memristor 1568 -480 R90
SYMATTR InstName U4
SYMBOL memristor 768 -480 R90
SYMATTR InstName U5
SYMBOL memristor 1216 -240 R270
SYMATTR InstName U6
SYMBOL memristor 1984 -240 R270
SYMATTR InstName U3
SYMBOL memristor 1632 -992 R270
SYMATTR InstName U2
SYMBOL voltage 64 -384 R0
SYMATTR InstName V3
SYMATTR Value 2
SYMBOL voltage 224 -384 R0
SYMATTR InstName V4
SYMATTR Value 5
TEXT 560 360 Left 2 !.tran 0 10m 1m
