Version 4
SHEET 1 924 680
WIRE -112 80 -400 80
WIRE 176 80 -112 80
WIRE 544 80 288 80
WIRE 864 80 544 80
WIRE 864 128 864 80
WIRE -112 256 -112 80
WIRE 544 256 544 80
WIRE -400 336 -400 80
WIRE 864 352 864 208
WIRE -400 512 -400 416
WIRE -112 512 -112 320
WIRE -112 512 -400 512
WIRE 192 512 -112 512
WIRE 544 512 544 320
WIRE 544 512 192 512
WIRE 864 512 864 432
WIRE 864 512 544 512
WIRE 192 544 192 512
FLAG 192 544 0
SYMBOL Chua_diode 224 32 R90
SYMATTR InstName X1
SYMBOL cap -128 256 R0
SYMATTR InstName C2
SYMATTR Value 0.05n
SYMBOL cap 528 256 R0
SYMATTR InstName C1
SYMATTR Value 0.5n
SYMBOL res 848 112 R0
SYMATTR InstName R1
SYMATTR Value 1k
SYMBOL ind 848 336 R0
SYMATTR InstName L1
SYMATTR Value 1m
SYMBOL ind -416 320 R0
SYMATTR InstName L2
SYMATTR Value 1.5m
TEXT 40 656 Left 2 !.tran 0 5s 0.1s
