Version 4
SHEET 1 1456 680
WIRE -400 -320 -512 -320
WIRE -512 -240 -512 -320
WIRE -32 -160 -224 -160
WIRE 80 -160 -32 -160
WIRE 256 -160 160 -160
WIRE 432 -160 256 -160
WIRE 576 -160 432 -160
WIRE 784 -160 656 -160
WIRE 960 -160 784 -160
WIRE 1056 -160 960 -160
WIRE 1248 -160 1136 -160
WIRE 1440 -160 1248 -160
WIRE -512 -96 -512 -160
WIRE -448 -96 -512 -96
WIRE -448 -80 -448 -96
WIRE -512 -32 -512 -96
WIRE -224 16 -224 -160
WIRE -32 16 -32 -160
WIRE 256 16 256 -160
WIRE 960 16 960 -160
WIRE 1248 16 1248 -160
WIRE 1440 16 1440 -160
WIRE -512 96 -512 48
WIRE -432 96 -512 96
WIRE 432 112 432 -160
WIRE 784 112 784 -160
WIRE -224 352 -224 96
WIRE -32 352 -32 80
WIRE -32 352 -224 352
WIRE 256 352 256 80
WIRE 256 352 -32 352
WIRE 432 352 432 224
WIRE 432 352 256 352
WIRE 784 352 784 224
WIRE 960 352 960 80
WIRE 960 352 784 352
WIRE 1248 352 1248 80
WIRE 1248 352 960 352
WIRE 1440 352 1440 96
WIRE 1440 352 1248 352
WIRE 256 384 256 352
WIRE 960 384 960 352
FLAG 256 384 0
FLAG 960 384 0
FLAG -400 -320 VDD
FLAG -448 -80 0
FLAG -432 96 VSS
SYMBOL cap -48 16 R0
SYMATTR InstName C1
SYMATTR Value 47n
SYMBOL ind -240 0 R0
SYMATTR InstName L1
SYMATTR Value 8.05m
SYMBOL Chua_diode 384 176 R0
SYMATTR InstName X1
SYMBOL res 176 -176 R90
WINDOW 0 0 56 VBottom 2
WINDOW 3 32 56 VTop 2
SYMATTR InstName R1
SYMATTR Value 1.7k
SYMBOL cap 240 16 R0
SYMATTR InstName C2
SYMATTR Value 4.7n
SYMBOL cap 1264 16 M0
SYMATTR InstName C3
SYMATTR Value 47nF
SYMBOL ind 1456 0 M0
SYMATTR InstName L2
SYMATTR Value 8.05mH
SYMBOL Chua_diode 832 176 M0
SYMATTR InstName X2
SYMBOL res 1040 -176 M90
WINDOW 0 0 56 VBottom 2
WINDOW 3 32 56 VTop 2
SYMATTR InstName R2
SYMATTR Value 1.6k
SYMBOL cap 976 16 M0
SYMATTR InstName C4
SYMATTR Value 4.7nF
SYMBOL voltage -512 -256 R0
SYMATTR InstName V1
SYMATTR Value 12
SYMBOL voltage -512 -48 R0
SYMATTR InstName V2
SYMATTR Value 12
SYMBOL res 672 -176 R90
WINDOW 0 0 56 VBottom 2
WINDOW 3 32 56 VTop 2
SYMATTR InstName R3
SYMATTR Value 3.3k
TEXT -544 408 Left 2 !.tran 0 200m 0.1m
