Version 4
SHEET 1 1064 712
WIRE -368 -64 -480 -64
WIRE 800 0 384 0
WIRE -480 16 -480 -64
WIRE 896 32 592 32
WIRE 80 64 32 64
WIRE 480 64 432 64
WIRE 864 96 816 96
WIRE 896 96 896 32
WIRE -16 128 -192 128
WIRE 272 128 240 128
WIRE 384 128 384 0
WIRE 384 128 352 128
WIRE 240 144 240 128
WIRE 800 144 800 0
WIRE 592 160 592 32
WIRE 1056 160 960 160
WIRE -480 176 -480 96
WIRE 1024 176 960 176
WIRE -128 192 -160 192
WIRE -64 192 -128 192
WIRE -16 192 -64 192
WIRE 192 192 192 160
WIRE 256 192 192 192
WIRE 384 192 256 192
WIRE 592 192 592 160
WIRE 800 192 768 192
WIRE -64 208 -64 192
WIRE 256 208 256 192
WIRE -384 240 -480 240
WIRE 592 256 480 256
WIRE 880 256 880 240
WIRE 880 256 592 256
WIRE 80 288 80 256
WIRE 80 288 -64 288
WIRE 256 288 256 272
WIRE 256 288 80 288
WIRE 592 288 592 256
WIRE 256 304 256 288
WIRE -480 320 -480 240
WIRE -128 432 -128 192
WIRE 1056 432 1056 160
WIRE 1056 432 -128 432
WIRE -480 448 -480 400
FLAG 256 304 0
FLAG 592 288 0
FLAG -480 176 0
FLAG -368 -64 VDD
FLAG -480 448 0
FLAG -384 240 VOS
FLAG 768 192 VOS
FLAG -160 192 VOS
FLAG -192 128 A
FLAG 32 64 VDD
FLAG 432 64 VDD
FLAG 816 96 VDD
FLAG 1024 176 B
FLAG 240 144 0
SYMBOL CCII 0 208 R0
SYMATTR InstName X1
SYMBOL CCII 400 208 R0
SYMATTR InstName X2
SYMBOL M-OTA 784 176 R0
SYMATTR InstName X3
SYMBOL res -80 192 R0
SYMATTR InstName R2
SYMATTR Value 1k
SYMBOL res 368 112 R90
WINDOW 0 0 56 VBottom 2
WINDOW 3 32 56 VTop 2
SYMATTR InstName R1
SYMATTR Value 25k
SYMBOL cap 240 208 R0
SYMATTR InstName C1
SYMATTR Value 30p
SYMBOL cap 576 192 R0
SYMATTR InstName C2
SYMATTR Value 30p
SYMBOL voltage -480 0 R0
SYMATTR InstName V1
SYMATTR Value 5
SYMBOL voltage -480 304 R0
SYMATTR InstName V2
SYMATTR Value 2.5
