Version 4
SHEET 1 880 680
WIRE 80 64 0 64
WIRE 400 64 304 64
WIRE 400 112 400 64
WIRE 80 144 80 64
WIRE -544 160 -592 160
WIRE 192 176 176 176
WIRE 304 176 272 176
WIRE -160 208 -192 208
WIRE -16 208 -80 208
WIRE 560 208 512 208
WIRE 608 208 560 208
WIRE -592 224 -592 160
WIRE 240 240 192 240
WIRE 304 240 240 240
WIRE 608 240 608 208
WIRE -16 272 -96 272
WIRE 176 272 176 240
WIRE 608 304 400 304
WIRE 608 320 608 304
WIRE -592 336 -592 304
WIRE 176 336 80 336
WIRE -16 352 -16 272
WIRE 528 352 -16 352
WIRE 176 368 176 336
WIRE 400 368 304 368
WIRE -368 416 -432 416
WIRE 400 416 400 368
WIRE 560 416 560 208
WIRE 560 416 432 416
WIRE -432 464 -432 416
WIRE 336 464 304 464
WIRE 528 480 528 352
WIRE 528 480 496 480
WIRE 576 496 496 496
WIRE 240 512 240 240
WIRE 336 512 240 512
WIRE 416 592 416 560
WIRE -432 608 -432 544
FLAG 608 320 0
FLAG 176 368 0
FLAG 416 592 0
FLAG -592 336 0
FLAG 576 496 B
FLAG -96 272 A
FLAG -544 160 VDD
FLAG 304 368 VDD
FLAG 304 64 VDD
FLAG 0 64 VDD
FLAG -432 608 0
FLAG -368 416 VOS
FLAG 304 464 VOS
FLAG -192 208 VOS
FLAG 176 176 VOS
SYMBOL CCII 0 288 R0
SYMATTR InstName X1
SYMBOL CCII 320 256 R0
SYMATTR InstName X2
SYMBOL M-OTA 320 496 R0
SYMATTR InstName X3
SYMBOL cap 592 240 R0
SYMATTR InstName C2
SYMATTR Value 100pF
SYMBOL res 288 160 R90
WINDOW 0 0 56 VBottom 2
WINDOW 3 32 56 VTop 2
SYMATTR InstName R2
SYMATTR Value 100k
SYMBOL cap 160 272 R0
SYMATTR InstName C1
SYMATTR Value 100pF
SYMBOL res -64 192 R90
WINDOW 0 0 56 VBottom 2
WINDOW 3 32 56 VTop 2
SYMATTR InstName R1
SYMATTR Value 100k
SYMBOL voltage -592 208 R0
SYMATTR InstName V1
SYMATTR Value 4
SYMBOL voltage -432 448 R0
SYMATTR InstName V2
SYMATTR Value 2.5
