Version 4
SHEET 1 1384 744
WIRE -320 -64 -432 -64
WIRE -432 16 -432 -64
WIRE 256 48 208 48
WIRE 16 112 -192 112
WIRE 160 112 96 112
WIRE 416 144 368 144
WIRE 512 144 416 144
WIRE 512 160 512 144
WIRE -432 176 -432 96
WIRE 16 208 -96 208
WIRE 160 208 160 176
WIRE 160 208 16 208
WIRE 512 240 512 224
WIRE 256 272 256 240
WIRE 16 320 16 208
WIRE 384 320 16 320
WIRE 416 352 416 144
WIRE 416 352 288 352
WIRE 256 384 208 384
WIRE 288 384 288 352
WIRE -192 432 -192 112
WIRE 192 432 -192 432
WIRE 384 448 384 320
WIRE 384 448 352 448
WIRE -192 464 -192 432
WIRE 480 464 352 464
WIRE 16 480 16 320
WIRE 192 480 16 480
WIRE 272 576 272 528
WIRE -192 592 -192 544
FLAG 272 576 0
FLAG 480 464 B
FLAG -96 208 A
FLAG -432 176 0
FLAG -320 -64 VDD
FLAG 208 384 VDD
FLAG 208 48 VDD
FLAG 256 272 0
FLAG 512 240 0
FLAG -192 592 0
SYMBOL CCII 176 192 R0
SYMATTR InstName X1
SYMBOL voltage -432 0 R0
SYMATTR InstName V1
SYMATTR Value 4
SYMBOL M-OTA 176 464 R0
SYMATTR InstName X2
SYMBOL cap 496 160 R0
SYMATTR InstName C1
SYMATTR Value 100p
SYMBOL res 112 96 R90
WINDOW 0 0 56 VBottom 2
WINDOW 3 32 56 VTop 2
SYMATTR InstName R1
SYMATTR Value 50k
SYMBOL voltage -192 448 R0
SYMATTR InstName V2
SYMATTR Value 2.5
TEXT 48 696 Left 2 !.op
