Version 4
SHEET 1 1136 680
WIRE 560 -112 368 -112
WIRE 720 -112 560 -112
WIRE 368 -16 368 -112
WIRE 720 -16 720 -112
WIRE 720 112 720 64
WIRE 368 208 368 64
WIRE 720 208 720 112
WIRE 304 256 64 256
WIRE 1072 256 784 256
WIRE 1072 336 1072 256
WIRE 368 384 368 304
WIRE 544 384 368 384
WIRE 720 384 720 304
WIRE 720 384 544 384
WIRE 544 416 544 384
WIRE 544 544 544 496
WIRE 1072 544 1072 416
WIRE 1072 544 544 544
FLAG 720 112 VOUT
FLAG 64 256 VIN
FLAG 544 544 VSS
FLAG 560 -112 VDD
SYMBOL Contrib\\Toshiba\\bjt\\TMBT3904 304 208 R0
SYMATTR InstName U1
SYMBOL Contrib\\Toshiba\\bjt\\TMBT3904 784 208 M0
SYMATTR InstName U2
SYMBOL res 528 400 R0
SYMATTR InstName R1
SYMATTR Value 2.2k
SYMBOL res 352 -32 R0
SYMATTR InstName R2
SYMATTR Value 10k
SYMBOL res 704 -32 R0
SYMATTR InstName R3
SYMATTR Value 10k
SYMBOL voltage 1072 320 R0
SYMATTR InstName V1
SYMATTR Value 1.5
TEXT -96 600 Left 2 !.tran 0 10m 0.1ms
